#Put Keywords Here, check Charge and Multiplicity.

 XYZ file generated by PYTHON : coordinates in Angstrom

0  1
C          -4.94529         4.31443        -0.73473
C          -4.12225         3.16692        -0.82636
H          -4.48755         2.21305        -0.51593
C          -2.79473         3.28517        -1.25660
O          -1.91688         2.24654        -1.37456
C          -2.40015         0.94003        -1.06127
C          -1.37608        -0.09775        -1.48928
H          -1.92132        -0.97678        -1.89784
H          -0.77120         0.31729        -2.33283
O          -0.55736        -0.50615        -0.40076
C           0.32744        -1.54929        -0.80661
H           0.97774        -1.22096        -1.58717
C           1.16309        -2.03717         0.35866
O           2.33087        -1.23358         0.48024
C           3.27470        -1.69778         1.44866
H           4.24028        -1.25740         1.18620
H           3.37519        -2.79951         1.36137
C           2.92464        -1.34912         2.87755
H           3.60775        -1.84573         3.53935
O           3.07110         0.08778         3.03190
C           2.62287         0.63677         4.21039
C           2.77565         2.05166         4.30493
O           3.37145         2.69005         3.25617
C           3.34229         4.13892         3.28254
H           2.28000         4.50828         3.25107
C           4.10315         4.71811         2.11766
H           5.11386         4.23253         2.05594
O           3.38498         4.59926         0.90454
C           3.89397         5.46478        -0.09591
C           3.14158         5.29682        -1.39674
H           3.19724         4.24068        -1.72236
H           3.66523         5.90038        -2.13882
O           1.78944         5.70174        -1.26258
C           1.10234         5.68919        -2.50384
H           1.27253         4.70795        -3.00278
H           1.48821         6.49874        -3.15508
C          -0.37581         5.88021        -2.29403
H          -0.85015         6.28481        -3.19914
O          -0.96903         4.59518        -1.99103
H          -0.56026         6.61557        -1.46492
H           4.98456         5.22523        -0.29989
H           3.79920         6.52486         0.23746
H           4.27999         5.76696         2.33582
H           3.85206         4.47788         4.20459
C           2.26823         2.69578         5.44232
H           2.29132         3.81265         5.55290
C           1.68339         1.97359         6.48167
C           1.59287         0.58667         6.41124
H           1.14016         0.02783         7.19011
H           1.27352         2.49463         7.34118
C           2.06878        -0.08686         5.25488
H           1.99171        -1.17259         5.21729
H           1.88106        -1.65173         3.09850
H           1.45672        -3.10403         0.15433
H           0.54198        -2.04788         1.29704
H          -0.27378        -2.40808        -1.20507
H          -2.59146         0.87304         0.04681
H          -3.33868         0.74898        -1.57836
C          -2.27987         4.55842        -1.61367
C          -3.11779         5.69164        -1.52180
H          -2.72768         6.69683        -1.81023
H          -5.95970         4.23618        -0.37286
C          -4.43856         5.56033        -1.08320
H          -5.09694         6.43768        -1.04399
H         -15.76329         3.06003         2.41603
C          -0.98903         4.37630         1.42207
H          -1.17154         5.40020         1.02143
C           0.08125         3.66706         0.89933
H           0.69289         4.12080         0.10930
C           0.36450         2.38014         1.39061
N           1.50457         1.68398         1.00392
H           1.92581         1.08806         1.73702
C           2.25410         1.73716        -0.11922
N           3.59925         1.49993         0.18782
H           3.81962         1.74766         1.17448
C           4.65364         1.10198        -0.60057
C           5.95889         1.44220        -0.20274
H           6.06544         1.97203         0.67559
C           7.05880         1.03499        -0.95795
C           8.43333         1.35882        -0.45878
F           8.49086         2.56464         0.18982
F           8.87621         0.42797         0.44844
F           9.35681         1.41038        -1.47338
C           6.90156         0.28590        -2.12984
H           7.75942        -0.04491        -2.73301
C           5.59377        -0.05842        -2.51159
C           5.37560        -0.84011        -3.79078
F           6.43138        -1.65670        -4.06899
F           5.25207        -0.00016        -4.86340
F           4.27273        -1.60771        -3.75139
C           4.47402         0.34246        -1.76991
H           3.46648         0.04322        -2.10725
S           1.69117         2.02658        -1.68216
C          -0.42070         1.86236         2.43494
H          -0.18660         0.86604         2.83755
C          -1.47416         2.59488         2.95783
H          -2.06707         2.14110         3.81377
C          -1.78612         3.86885         2.46473
C          -2.96037         4.65992         3.01826
H          -3.02820         5.60534         2.46561
H          -2.81453         4.88973         4.09142
C          -4.27540         3.90645         2.86800
H          -4.23352         3.01450         3.51286
H          -4.40433         3.61571         1.80290
O          -5.33654         4.76629         3.25642
C          -6.59283         4.21689         3.33590
C          -6.90577         2.89047         3.00265
H          -6.16833         2.24061         2.63569
C          -8.22345         2.41491         3.15875
H          -8.42734         1.37179         2.90825
C          -9.24794         3.24242         3.64886
C          -8.92835         4.58416         3.94582
H          -9.68843         5.25813         4.26517
N         -10.53575         2.74165         3.77440
C         -11.52108         3.41902         4.63164
H         -11.91637         4.30958         4.12590
H         -11.10189         3.75340         5.59083
C         -12.66413         2.48057         4.95403
C         -12.72481         1.82563         6.19379
H         -11.93869         2.03312         6.90688
C         -13.72886         0.92168         6.49396
C         -13.81388         0.18710         7.83911
C         -12.68985         0.61344         8.80514
H         -12.80083         0.09210         9.76761
H         -11.68320         0.37733         8.39704
H         -12.74303         1.66677         9.04187
C         -13.69470        -1.33231         7.61127
H         -12.76866        -1.57306         7.15520
H         -13.76895        -1.89605         8.57006
H         -14.49392        -1.72899         6.97375
C         -15.17307         0.52667         8.50229
H         -16.00150         0.20739         7.86395
H         -15.29346         0.03981         9.47565
H         -15.25739         1.60439         8.70549
C         -14.67640         0.65662         5.49179
H         -15.49377        -0.04897         5.72346
C         -14.65897         1.26471         4.23995
C         -15.70399         0.97843         3.14716
C         -16.46209         2.27374         2.82025
H         -17.21721         2.08160         2.04079
H         -16.95997         2.66651         3.69376
C         -14.98375         0.46111         1.87601
H         -15.73402         0.28151         1.07291
H         -14.25875         1.20734         1.50839
H         -14.42482        -0.46711         2.06647
C         -16.72544        -0.08516         3.58701
H         -17.31938         0.23284         4.44111
H         -17.46984        -0.27237         2.77126
H         -16.26145        -1.08747         3.87199
C         -13.63455         2.19950         3.99139
H         -13.57912         2.74055         3.02361
C          -7.62269         5.06233         3.78363
H          -7.34687         6.07798         3.99903
H         -10.55893         1.70241         3.83680

